
Actelion Java MolfileCreator 1.0

 17 17  0  0  0  0  0  0  0  0999 V2000
    9.6886  -10.6755    0.0000 C   0  0  0  0  0  0  0  0  0  0  0  0
    9.6886  -12.1108    0.0000 C   0  0  0  0  0  0  0  0  0  0  0  0
   10.9317  -12.8285    0.0000 N   0  0  0  0  0  0  0  0  0  0  0  0
   12.1748  -12.1108    0.0000 C   0  0  0  0  0  0  0  0  0  0  0  0
   12.1748  -10.6755    0.0000 C   0  0  0  0  0  0  0  0  0  0  0  0
   10.9317   -9.9578    0.0000 C   0  0  0  0  0  0  0  0  0  0  0  0
    9.6886  -14.9815    0.0000 O   0  0  0  0  0  0  0  0  0  0  0  0
   10.9317   -8.5224    0.0000 O   0  0  0  0  0  0  0  0  0  0  0  0
   13.4178  -12.8285    0.0000 O   0  0  0  0  0  0  0  0  0  0  0  0
    8.4456  -12.8285    0.0000 C   0  0  0  0  0  0  0  0  0  0  0  0
    8.4456  -14.2638    0.0000 C   0  0  0  0  0  0  0  0  0  0  0  0
    7.2025  -14.9815    0.0000 O   0  0  0  0  0  0  0  0  0  0  0  0
    8.4456   -9.9578    0.0000 C   0  0  0  0  0  0  0  0  0  0  0  0
   13.4178   -9.9578    0.0000 C   0  0  0  0  0  0  0  0  0  0  0  0
   12.6790   -7.1768    0.0000 R#  0  0  0  0  0  0  0  0  0  0  0  0
    9.6886  -16.7458    0.0000 R#  0  0  0  0  0  0  0  0  0  0  0  0
   10.9317  -14.2638    0.0000 H   0  0  0  0  0  0  0  0  0  0  0  0
  1  2  2  0  0  0  0
  2  3  1  0  0  0  0
  4  5  1  0  0  0  0
  5  6  2  0  0  0  0
  6  1  1  0  0  0  0
  3  4  1  0  0  0  0
 11  7  1  0  0  0  0
  6  8  1  0  0  0  0
  4  9  2  0  0  0  0
  2 10  1  0  0  0  0
 10 11  1  0  0  0  0
 11 12  2  0  0  0  0
  1 13  1  0  0  0  0
  5 14  1  0  0  0  0
  8 15  1  0  0  0  0
  7 16  1  0  0  0  0
  3 17  1  0  0  0  0
M  RGP  2  15   1  16   2
M  END
