135567463
  -OEChem-05042617092D

 62 62  0     1  0  0  0  0  0999 V2000
   14.5692    0.5550    0.0000 Fe  0  0  0  0  0  0  0  0  0  0  0  0
   10.1589    1.8598    0.0000 P   0  0  3  0  0  0  0  0  0  0  0  0
    7.4563    0.3652    0.0000 O   0  0  0  0  0  0  0  0  0  0  0  0
    6.4394    2.7446    0.0000 O   0  0  0  0  0  0  0  0  0  0  0  0
    4.9836    1.1279    0.0000 O   0  0  0  0  0  0  0  0  0  0  0  0
    9.2929    1.3598    0.0000 O   0  0  0  0  0  0  0  0  0  0  0  0
   11.0249    2.3598    0.0000 O   0  0  0  0  0  0  0  0  0  0  0  0
    9.6589    2.7258    0.0000 O   0  0  0  0  0  0  0  0  0  0  0  0
   16.1528    1.3598    0.0000 O   0  0  0  0  0  0  0  0  0  0  0  0
   12.7570   -0.6402    0.0000 O   0  0  0  0  0  0  0  0  0  0  0  0
   10.6589    0.9937    0.0000 O   0  0  0  0  0  0  0  0  0  0  0  0
    3.9804   -3.3598    0.0000 O   0  0  0  0  0  0  0  0  0  0  0  0
   16.1893   -0.6177    0.0000 O   0  3  0  0  0  0  0  0  0  0  0  0
   13.9545   -1.3481    0.0000 O   0  3  0  0  0  0  0  0  0  0  0  0
    6.0714   -0.7562    0.0000 N   0  0  0  0  0  0  0  0  0  0  0  0
   13.6230    0.8598    0.0000 N   0  5  0  0  0  0  0  0  0  0  0  0
    5.9059   -2.3572    0.0000 N   0  0  0  0  0  0  0  0  0  0  0  0
    4.2888   -0.3757    0.0000 N   0  0  0  0  0  0  0  0  0  0  0  0
    3.2732   -1.7787    0.0000 N   0  0  0  0  0  0  0  0  0  0  0  0
    2.5660   -0.1976    0.0000 N   0  0  0  0  0  0  0  0  0  0  0  0
    6.6473    1.7665    0.0000 C   0  0  1  0  0  0  0  0  0  0  0  0
    5.9781    1.0234    0.0000 C   0  0  2  0  0  0  0  0  0  0  0  0
    7.5608    1.3598    0.0000 C   0  0  1  0  0  0  0  0  0  0  0  0
    6.4781    0.1573    0.0000 C   0  0  1  0  0  0  0  0  0  0  0  0
    8.4268    1.8598    0.0000 C   0  0  0  0  0  0  0  0  0  0  0  0
    5.0989   -0.9620    0.0000 C   0  0  0  0  0  0  0  0  0  0  0  0
   13.6230    1.8598    0.0000 C   0  0  0  0  0  0  0  0  0  0  0  0
    6.5692   -1.6167    0.0000 C   0  0  0  0  0  0  0  0  0  0  0  0
   14.5692    2.1645    0.0000 C   0  0  0  0  0  0  0  0  0  0  0  0
   12.7570    2.3598    0.0000 C   0  0  0  0  0  0  0  0  0  0  0  0
   15.1528    1.3598    0.0000 C   0  5  0  0  0  0  0  0  0  0  0  0
    4.9961   -1.9568    0.0000 C   0  0  0  0  0  0  0  0  0  0  0  0
   11.8909    1.8598    0.0000 C   0  0  0  0  0  0  0  0  0  0  0  0
   12.7570    0.3598    0.0000 C   0  0  0  0  0  0  0  0  0  0  0  0
   11.8909    0.8598    0.0000 C   0  0  0  0  0  0  0  0  0  0  0  0
   12.7570    3.3598    0.0000 C   0  0  0  0  0  0  0  0  0  0  0  0
    4.0832   -2.3651    0.0000 C   0  0  0  0  0  0  0  0  0  0  0  0
   11.0249    0.3598    0.0000 C   0  0  0  0  0  0  0  0  0  0  0  0
   15.3792   -0.0313    0.0000 C   0  5  0  0  0  0  0  0  0  0  0  0
   14.2618   -0.3966    0.0000 C   0  5  0  0  0  0  0  0  0  0  0  0
    3.3760   -0.7840    0.0000 C   0  0  0  0  0  0  0  0  0  0  0  0
    7.1291    2.1567    0.0000 H   0  0  0  0  0  0  0  0  0  0  0  0
    5.7560    1.6022    0.0000 H   0  0  0  0  0  0  0  0  0  0  0  0
    8.0808    1.0221    0.0000 H   0  0  0  0  0  0  0  0  0  0  0  0
    6.8683   -0.3245    0.0000 H   0  0  0  0  0  0  0  0  0  0  0  0
    8.8254    2.3347    0.0000 H   0  0  0  0  0  0  0  0  0  0  0  0
    8.0283    2.3347    0.0000 H   0  0  0  0  0  0  0  0  0  0  0  0
    5.8497    2.9362    0.0000 H   0  0  0  0  0  0  0  0  0  0  0  0
    4.7314    1.6943    0.0000 H   0  0  0  0  0  0  0  0  0  0  0  0
    7.1859   -1.6804    0.0000 H   0  0  0  0  0  0  0  0  0  0  0  0
   15.1066    2.4737    0.0000 H   0  0  0  0  0  0  0  0  0  0  0  0
   14.3182    2.7314    0.0000 H   0  0  0  0  0  0  0  0  0  0  0  0
   13.3770    3.3598    0.0000 H   0  0  0  0  0  0  0  0  0  0  0  0
   12.7570    3.9798    0.0000 H   0  0  0  0  0  0  0  0  0  0  0  0
   12.1370    3.3598    0.0000 H   0  0  0  0  0  0  0  0  0  0  0  0
   10.7149    0.8967    0.0000 H   0  0  0  0  0  0  0  0  0  0  0  0
   10.4880    0.0498    0.0000 H   0  0  0  0  0  0  0  0  0  0  0  0
   11.3349   -0.1772    0.0000 H   0  0  0  0  0  0  0  0  0  0  0  0
    2.7072   -2.0318    0.0000 H   0  0  0  0  0  0  0  0  0  0  0  0
    9.9689    3.2627    0.0000 H   0  0  0  0  0  0  0  0  0  0  0  0
    2.0000   -0.4508    0.0000 H   0  0  0  0  0  0  0  0  0  0  0  0
    2.6297    0.4191    0.0000 H   0  0  0  0  0  0  0  0  0  0  0  0
  2  6  1  0  0  0  0
  2  7  1  0  0  0  0
  2  8  1  0  0  0  0
  2 11  2  0  0  0  0
  3 23  1  0  0  0  0
  3 24  1  0  0  0  0
 21  4  1  6  0  0  0
  4 48  1  0  0  0  0
 22  5  1  6  0  0  0
  5 49  1  0  0  0  0
  6 25  1  0  0  0  0
  7 33  1  0  0  0  0
  8 60  1  0  0  0  0
  9 31  2  0  0  0  0
 10 34  2  0  0  0  0
 12 37  2  0  0  0  0
 13 39  3  0  0  0  0
 14 40  3  0  0  0  0
 24 15  1  1  0  0  0
 15 26  1  0  0  0  0
 15 28  1  0  0  0  0
 16 27  1  0  0  0  0
 16 34  1  0  0  0  0
 17 28  2  0  0  0  0
 17 32  1  0  0  0  0
 18 26  1  0  0  0  0
 18 41  2  0  0  0  0
 19 37  1  0  0  0  0
 19 41  1  0  0  0  0
 19 59  1  0  0  0  0
 20 41  1  0  0  0  0
 20 61  1  0  0  0  0
 20 62  1  0  0  0  0
 21 22  1  0  0  0  0
 21 23  1  0  0  0  0
 21 42  1  0  0  0  0
 22 24  1  0  0  0  0
 22 43  1  0  0  0  0
 23 25  1  1  0  0  0
 23 44  1  0  0  0  0
 24 45  1  0  0  0  0
 25 46  1  0  0  0  0
 25 47  1  0  0  0  0
 26 32  2  0  0  0  0
 27 29  1  0  0  0  0
 27 30  2  0  0  0  0
 28 50  1  0  0  0  0
 29 31  1  0  0  0  0
 29 51  1  0  0  0  0
 29 52  1  0  0  0  0
 30 33  1  0  0  0  0
 30 36  1  0  0  0  0
 32 37  1  0  0  0  0
 33 35  2  0  0  0  0
 34 35  1  0  0  0  0
 35 38  1  0  0  0  0
 36 53  1  0  0  0  0
 36 54  1  0  0  0  0
 36 55  1  0  0  0  0
 38 56  1  0  0  0  0
 38 57  1  0  0  0  0
 38 58  1  0  0  0  0
M  CHG  7   1   4  13   1  14   1  16  -1  31  -1  39  -1  40  -1
M  END
> <PUBCHEM_COMPOUND_CID>
135567463

> <PUBCHEM_COMPOUND_CANONICALIZED>
1

> <PUBCHEM_CACTVS_COMPLEXITY>
1220

> <PUBCHEM_CACTVS_HBOND_ACCEPTOR>
16

> <PUBCHEM_CACTVS_HBOND_DONOR>
5

> <PUBCHEM_CACTVS_ROTATABLE_BOND>
6

> <PUBCHEM_CACTVS_SUBSKEYS>
AAADceB7vAIAAAAgAAAAAAAAAAAAAWLEgAAgQAAAAAAAAEABgAAAHgAQCCAADBzhlgYHsBfMFxCoQwdxdICAgC03MKABWAGoVEiLXApAyCAeUIgPBQLbgWLwMAIAAAAAAAAAAAAAAAAAAAAAAAAAAAAAAA==

> <PUBCHEM_IUPAC_OPENEYE_NAME>
[(2R,3S,4R,5R)-5-(2-amino-6-oxo-1H-purin-9-yl)-3,4-dihydroxy-tetrahydrofuran-2-yl]methyl [3,5-dimethyl-2-oxo-6-(2-oxoethyl)pyridin-1-id-4-yl] hydrogen phosphate;carbon monoxide;iron(4+)

> <PUBCHEM_IUPAC_CAS_NAME>
[(2R,3S,4R,5R)-5-(2-amino-6-oxo-1H-purin-9-yl)-3,4-dihydroxy-2-oxolanyl]methyl [3,5-dimethyl-2-oxo-6-(2-oxoethyl)-4-pyridin-1-idyl] hydrogen phosphate;carbon monoxide;iron(4+)

> <PUBCHEM_IUPAC_NAME_MARKUP>
[(2<I>R</I>,3<I>S</I>,4<I>R</I>,5<I>R</I>)-5-(2-amino-6-oxo-1<I>H</I>-purin-9-yl)-3,4-dihydroxyoxolan-2-yl]methyl [3,5-dimethyl-2-oxo-6-(2-oxoethyl)pyridin-1-id-4-yl] hydrogen phosphate;carbon monoxide;iron(4+)

> <PUBCHEM_IUPAC_NAME>
[(2R,3S,4R,5R)-5-(2-amino-6-oxo-1H-purin-9-yl)-3,4-dihydroxyoxolan-2-yl]methyl [3,5-dimethyl-2-oxo-6-(2-oxoethyl)pyridin-1-id-4-yl] hydrogen phosphate;carbon monoxide;iron(4+)

> <PUBCHEM_IUPAC_SYSTEMATIC_NAME>
[(2R,3S,4R,5R)-5-(2-azanyl-6-oxidanylidene-1H-purin-9-yl)-3,4-bis(oxidanyl)oxolan-2-yl]methyl [3,5-dimethyl-2-oxidanylidene-6-(2-oxidanylideneethyl)pyridin-1-id-4-yl] hydrogen phosphate;carbon monoxide;iron(4+)

> <PUBCHEM_IUPAC_TRADITIONAL_NAME>
[(2R,3S,4R,5R)-5-(2-amino-6-keto-1H-purin-9-yl)-3,4-dihydroxy-tetrahydrofuran-2-yl]methyl [2-keto-6-(2-ketoethyl)-3,5-dimethyl-pyridin-1-id-4-yl] hydrogen phosphate;carbon monoxide;iron(4+)

> <PUBCHEM_IUPAC_INCHI>
InChI=1S/C19H22N6O10P.2CO.Fe/c1-7-9(3-4-26)22-16(29)8(2)14(7)35-36(31,32)33-5-10-12(27)13(28)18(34-10)25-6-21-11-15(25)23-19(20)24-17(11)30;2*1-2;/h6,10,12-13,18,27-28H,3,5H2,1-2H3,(H5,20,22,23,24,29,30,31,32);;;/q-1;;;+4/p-1/t10-,12-,13-,18-;;;/m1.../s1

> <PUBCHEM_IUPAC_INCHIKEY>
PARLVIKOSJRBGV-WGOARKOZSA-M

> <PUBCHEM_EXACT_MASS>
636.030443

> <PUBCHEM_MOLECULAR_FORMULA>
C21H21FeN6O12P+2

> <PUBCHEM_MOLECULAR_WEIGHT>
636.2

> <PUBCHEM_SMILES>
CC1=C([N-]C(=O)C(=C1OP(=O)(O)OC[C@@H]2[C@H]([C@H]([C@@H](O2)N3C=NC4=C3N=C(NC4=O)N)O)O)C)C[C-]=O.[C-]#[O+].[C-]#[O+].[Fe+4]

> <PUBCHEM_CONNECTIVITY_SMILES>
CC1=C([N-]C(=O)C(=C1OP(=O)(O)OCC2C(C(C(O2)N3C=NC4=C3N=C(NC4=O)N)O)O)C)C[C-]=O.[C-]#[O+].[C-]#[O+].[Fe+4]

> <PUBCHEM_CACTVS_TPSA>
228

> <PUBCHEM_MONOISOTOPIC_WEIGHT>
636.030443

> <PUBCHEM_TOTAL_CHARGE>
2

> <PUBCHEM_HEAVY_ATOM_COUNT>
41

> <PUBCHEM_ATOM_DEF_STEREO_COUNT>
4

> <PUBCHEM_ATOM_UDEF_STEREO_COUNT>
0

> <PUBCHEM_BOND_DEF_STEREO_COUNT>
0

> <PUBCHEM_BOND_UDEF_STEREO_COUNT>
0

> <PUBCHEM_ISOTOPIC_ATOM_COUNT>
0

> <PUBCHEM_COMPONENT_COUNT>
4

> <PUBCHEM_CACTVS_TAUTO_COUNT>
-1

> <PUBCHEM_NONSTANDARDBOND>
1  16  6
1  31  6
1  39  6
1  40  6

> <PUBCHEM_COORDINATE_TYPE>
1
5
255

> <PUBCHEM_BONDANNOTATIONS>
24  15  5
15  26  8
15  28  8
16  27  8
16  34  8
17  28  8
17  32  8
18  26  8
18  41  8
19  37  8
19  41  8
23  25  5
26  32  8
27  30  8
30  33  8
32  37  8
33  35  8
34  35  8
21  4  6
22  5  6

$$$$
