null
  Ketcher  9 42618302D 1   1.00000     0.00000     0

 20 20  0  0  0  0  0  0  0  0999 V2000
   15.2189   -6.2392    0.0000 C   0  0  0  0  0  0  0  0  0  0  0  0
   16.1699   -7.5483    0.0000 O   0  0  0  0  0  0  0  0  0  0  0  0
   16.1699   -6.5483    0.0000 C   0  0  0  0  0  0  0  0  0  0  0  0
   15.2189   -7.8573    0.0000 C   0  0  0  0  0  0  0  0  0  0  0  0
   14.6311   -7.0483    0.0000 C   0  0  0  0  0  0  0  0  0  0  0  0
   13.6311   -7.0483    0.0000 C   0  0  0  0  0  0  0  0  0  0  0  0
   13.1311   -7.9143    0.0000 O   0  0  0  0  0  0  0  0  0  0  0  0
   12.1311   -7.9143    0.0000 R#  0  0  0  0  0  0  0  0  0  0  0  0
   16.9790   -5.9605    0.0000 C   0  0  0  0  0  0  0  0  0  0  0  0
   17.8925   -6.3672    0.0000 N   0  0  0  0  0  0  0  0  0  0  0  0
   18.7015   -5.7794    0.0000 C   0  0  0  0  0  0  0  0  0  0  0  0
   18.5970   -4.7849    0.0000 O   0  0  0  0  0  0  0  0  0  0  0  0
   14.9099   -5.2882    0.0000 H   0  0  0  0  0  0  0  0  0  0  0  0
   14.9099   -8.8083    0.0000 H   0  0  0  0  0  0  0  0  0  0  0  0
   13.8049   -6.0635    0.0000 H   0  0  0  0  0  0  0  0  0  0  0  0
   12.6915   -6.7059    0.0000 H   0  0  0  0  0  0  0  0  0  0  0  0
   16.2600   -5.2654    0.0000 H   0  0  0  0  0  0  0  0  0  0  0  0
   17.5384   -5.1316    0.0000 H   0  0  0  0  0  0  0  0  0  0  0  0
   17.9970   -7.3617    0.0000 H   0  0  0  0  0  0  0  0  0  0  0  0
   19.6151   -6.1862    0.0000 H   0  0  0  0  0  0  0  0  0  0  0  0
  1  5  1  0     0  0
  5  4  2  0     0  0
  4  2  1  0     0  0
  2  3  1  0     0  0
  3  1  2  0     0  0
  5  6  1  0     0  0
  6  7  1  0     0  0
  7  8  1  0     0  0
  3  9  1  0     0  0
  9 10  1  0     0  0
 10 11  1  0     0  0
 11 12  2  0     0  0
  1 13  1  0     0  0
  4 14  1  0     0  0
  6 15  1  0     0  0
  6 16  1  0     0  0
  9 17  1  0     0  0
  9 18  1  0     0  0
 10 19  1  0     0  0
 11 20  1  0     0  0
M  RGP  1   8   1
M  END
