
Actelion Java MolfileCreator 1.0

 15 15  0  0  0  0  0  0  0  0999 V2000
   10.4589  -11.5241    0.0000 C   0  0  0  0  0  0  0  0  0  0  0  0
   10.4589  -13.0736    0.0000 C   0  0  0  0  0  0  0  0  0  0  0  0
   11.8007  -13.8483    0.0000 N   0  0  0  0  0  0  0  0  0  0  0  0
   13.1426  -13.0736    0.0000 C   0  0  0  0  0  0  0  0  0  0  0  0
   13.1426  -11.5241    0.0000 C   0  0  0  0  0  0  0  0  0  0  0  0
   11.8007  -10.7494    0.0000 C   0  0  0  0  0  0  0  0  0  0  0  0
   11.8007   -9.1999    0.0000 O   0  0  0  0  0  0  0  0  0  0  0  0
   14.4845  -13.8483    0.0000 O   0  0  0  0  0  0  0  0  0  0  0  0
    9.1170  -13.8483    0.0000 C   0  0  0  0  0  0  0  0  0  0  0  0
    9.1677  -14.7844    0.0000 C   0  0  0  0  0  0  0  0  0  0  0  0
    8.3284  -16.1402    0.0000 O   0  0  0  0  0  0  0  0  0  0  0  0
    9.1170  -10.7494    0.0000 C   0  0  0  0  0  0  0  0  0  0  0  0
   14.4845  -10.7494    0.0000 C   0  0  0  0  0  0  0  0  0  0  0  0
   12.6539   -8.1992    0.0000 R#  0  0  0  0  0  0  0  0  0  0  0  0
   15.8778  -13.0439    0.0000 H   0  0  0  0  0  0  0  0  0  0  0  0
  2  3  2  0  0  0  0
  4  5  2  0  0  0  0
  5  6  1  0  0  0  0
  6  1  2  0  0  0  0
  3  4  1  0  0  0  0
  6  7  1  0  0  0  0
  4  8  1  0  0  0  0
  2  9  1  0  0  0  0
  9 10  1  0  0  0  0
 10 11  2  0  0  0  0
  1 12  1  0  0  0  0
  5 13  1  0  0  0  0
  1  2  1  0  0  0  0
  7 14  1  0  0  0  0
  8 15  1  0  0  0  0
M  RGP  1  14   1
M  END
