
Actelion Java MolfileCreator 1.0

 17 17  0  0  0  0  0  0  0  0999 V2000
    9.8153  -10.8150    0.0000 C   0  0  0  0  0  0  0  0  0  0  0  0
    9.8153  -12.2691    0.0000 C   0  0  0  0  0  0  0  0  0  0  0  0
   11.0746  -12.9961    0.0000 N   0  0  0  0  0  0  0  0  0  0  0  0
   12.3339  -12.2691    0.0000 C   0  0  0  0  0  0  0  0  0  0  0  0
   12.3339  -10.8150    0.0000 C   0  0  0  0  0  0  0  0  0  0  0  0
   11.0746  -10.0879    0.0000 C   0  0  0  0  0  0  0  0  0  0  0  0
    9.8153  -15.1773    0.0000 O   0  0  0  0  0  0  0  0  0  0  0  0
   11.0746   -8.6338    0.0000 O   0  0  0  0  0  0  0  0  0  0  0  0
   13.5932  -12.9961    0.0000 O   0  0  0  0  0  0  0  0  0  0  0  0
    8.5560  -12.9961    0.0000 C   0  0  0  0  0  0  0  0  0  0  0  0
    8.5560  -14.4502    0.0000 C   0  0  0  0  0  0  0  0  0  0  0  0
    7.2967  -15.1773    0.0000 O   0  0  0  0  0  0  0  0  0  0  0  0
    8.5560  -10.0879    0.0000 C   0  0  0  0  0  0  0  0  0  0  0  0
   13.5932  -10.0879    0.0000 C   0  0  0  0  0  0  0  0  0  0  0  0
   12.8447   -7.2706    0.0000 R#  0  0  0  0  0  0  0  0  0  0  0  0
   11.0746  -14.4502    0.0000 H   0  0  0  0  0  0  0  0  0  0  0  0
    9.8153  -16.6314    0.0000 H   0  0  0  0  0  0  0  0  0  0  0  0
  1  2  2  0  0  0  0
  2  3  1  0  0  0  0
  4  5  1  0  0  0  0
  5  6  2  0  0  0  0
  6  1  1  0  0  0  0
  3  4  1  0  0  0  0
 11  7  1  0  0  0  0
  6  8  1  0  0  0  0
  4  9  2  0  0  0  0
  2 10  1  0  0  0  0
 10 11  1  0  0  0  0
 11 12  2  0  0  0  0
  1 13  1  0  0  0  0
  5 14  1  0  0  0  0
  8 15  1  0  0  0  0
  3 16  1  0  0  0  0
  7 17  1  0  0  0  0
M  RGP  1  15   1
M  END
