
Actelion Java MolfileCreator 1.0

 15 15  0  0  0  0  0  0  0  0999 V2000
    9.7513  -10.7445    0.0000 C   0  0  0  0  0  0  0  0  0  0  0  0
    9.7513  -12.1892    0.0000 C   0  0  0  0  0  0  0  0  0  0  0  0
   11.0024  -12.9115    0.0000 N   0  0  0  0  0  0  0  0  0  0  0  0
   12.2535  -12.1892    0.0000 C   0  0  0  0  0  0  0  0  0  0  0  0
   12.2535  -10.7445    0.0000 C   0  0  0  0  0  0  0  0  0  0  0  0
   11.0024  -10.0222    0.0000 C   0  0  0  0  0  0  0  0  0  0  0  0
   11.0024   -8.5776    0.0000 O   0  0  0  0  0  0  0  0  0  0  0  0
   13.5046  -12.9115    0.0000 O   0  0  0  0  0  0  0  0  0  0  0  0
    8.5002  -12.9115    0.0000 C   0  0  0  0  0  0  0  0  0  0  0  0
    8.5002  -14.3561    0.0000 C   0  0  0  0  0  0  0  0  0  0  0  0
    7.2491  -15.0785    0.0000 O   0  0  0  0  0  0  0  0  0  0  0  0
    8.5002  -10.0222    0.0000 C   0  0  0  0  0  0  0  0  0  0  0  0
   13.5046  -10.0222    0.0000 C   0  0  0  0  0  0  0  0  0  0  0  0
   12.7610   -7.2232    0.0000 R#  0  0  0  0  0  0  0  0  0  0  0  0
   14.8037  -12.1615    0.0000 H   0  0  0  0  0  0  0  0  0  0  0  0
  2  3  2  0  0  0  0
  4  5  2  0  0  0  0
  5  6  1  0  0  0  0
  6  1  2  0  0  0  0
  3  4  1  0  0  0  0
  6  7  1  0  0  0  0
  4  8  1  0  0  0  0
  2  9  1  0  0  0  0
  9 10  1  0  0  0  0
 10 11  2  0  0  0  0
  1 12  1  0  0  0  0
  5 13  1  0  0  0  0
  7 14  1  0  0  0  0
  1  2  1  0  0  0  0
  8 15  1  0  0  0  0
M  RGP  1  14   1
M  END
