129012091
Actelion Java MolfileCreator 1.0

 22 22  0  0  0  0  0  0  0  0999 V2000
   17.5951  -10.1191    0.0000 O   0  0  0  0  0  0  0  0  0  0  0  0
   20.5515  -15.2400    0.0000 O   0  0  0  0  0  0  0  0  0  0  0  0
   13.1602  -17.8005    0.0000 O   0  0  0  0  0  0  0  0  0  0  0  0
   16.1167  -17.8005    0.0000 O   0  0  0  0  0  0  0  0  0  0  0  0
   17.5951  -15.2400    0.0000 N   0  0  0  0  0  0  0  0  0  0  0  0
   16.1167  -14.3865    0.0000 C   0  0  0  0  0  0  0  0  0  0  0  0
   16.1167  -12.6796    0.0000 C   0  0  0  0  0  0  0  0  0  0  0  0
   14.6385  -15.2400    0.0000 C   0  0  0  0  0  0  0  0  0  0  0  0
   17.5951  -11.8261    0.0000 C   0  0  0  0  0  0  0  0  0  0  0  0
   14.6385  -11.8261    0.0000 C   0  0  0  0  0  0  0  0  0  0  0  0
   19.0733  -14.3865    0.0000 C   0  0  0  0  0  0  0  0  0  0  0  0
   19.0733  -12.6796    0.0000 C   0  0  0  0  0  0  0  0  0  0  0  0
   14.6385  -16.9470    0.0000 C   0  0  0  0  0  0  0  0  0  0  0  0
   16.2960   -9.3691    0.0000 H   0  0  0  0  0  0  0  0  0  0  0  0
   15.1676  -10.9096    0.0000 H   0  0  0  0  0  0  0  0  0  0  0  0
   13.7220  -11.2969    0.0000 H   0  0  0  0  0  0  0  0  0  0  0  0
   14.1093  -12.7426    0.0000 H   0  0  0  0  0  0  0  0  0  0  0  0
   19.9898  -12.1504    0.0000 H   0  0  0  0  0  0  0  0  0  0  0  0
   13.5962  -15.4239    0.0000 H   0  0  0  0  0  0  0  0  0  0  0  0
   17.3983  -17.0605    0.0000 H   0  0  0  0  0  0  0  0  0  0  0  0
   21.8332  -14.5001    0.0000 H   0  0  0  0  0  0  0  0  0  0  0  0
   14.2766  -14.2455    0.0000 H   0  0  0  0  0  0  0  0  0  0  0  0
  1  9  1  0  0  0  0
 11 12  2  0  0  0  0
  2 11  1  0  0  0  0
  3 13  2  0  0  0  0
  9 12  1  0  0  0  0
  4 13  1  0  0  0  0
  5  6  2  0  0  0  0
  5 11  1  0  0  0  0
  8 13  1  0  0  0  0
  6  7  1  0  0  0  0
  6  8  1  0  0  0  0
  7  9  2  0  0  0  0
  7 10  1  0  0  0  0
  1 14  1  0  0  0  0
 10 15  1  0  0  0  0
 10 16  1  0  0  0  0
 10 17  1  0  0  0  0
 12 18  1  0  0  0  0
  8 22  1  0  0  0  0
  4 20  1  0  0  0  0
  2 21  1  0  0  0  0
  8 19  1  0  0  0  0
M  END
