
Actelion Java MolfileCreator 1.0

 16 16  0  0  0  0  0  0  0  0999 V2000
   10.1250  -11.1563    0.0000 C   0  0  0  0  0  0  0  0  0  0  0  0
   10.1250  -12.6563    0.0000 C   0  0  0  0  0  0  0  0  0  0  0  0
   11.4240  -13.4063    0.0000 N   0  0  0  0  0  0  0  0  0  0  0  0
   12.7231  -12.6563    0.0000 C   0  0  0  0  0  0  0  0  0  0  0  0
   12.7231  -11.1563    0.0000 C   0  0  0  0  0  0  0  0  0  0  0  0
   11.4240  -10.4063    0.0000 C   0  0  0  0  0  0  0  0  0  0  0  0
   10.1250  -15.6563    0.0000 O   0  0  0  0  0  0  0  0  0  0  0  0
   11.4240   -8.9063    0.0000 O   0  0  0  0  0  0  0  0  0  0  0  0
   14.0221  -13.4063    0.0000 O   0  0  0  0  0  0  0  0  0  0  0  0
    8.8260  -13.4063    0.0000 C   0  0  0  0  0  0  0  0  0  0  0  0
    8.8260  -14.9063    0.0000 C   0  0  0  0  0  0  0  0  0  0  0  0
    7.5269  -15.6563    0.0000 O   0  0  0  0  0  0  0  0  0  0  0  0
    8.8260  -10.4062    0.0000 C   0  0  0  0  0  0  0  0  0  0  0  0
   10.1250  -17.1563    0.0000 H   0  0  0  0  0  0  0  0  0  0  0  0
   10.1250   -8.1563    0.0000 H   0  0  0  0  0  0  0  0  0  0  0  0
   11.4240  -14.9063    0.0000 H   0  0  0  0  0  0  0  0  0  0  0  0
  1  2  2  0  0  0  0
  2  3  1  0  0  0  0
  4  5  1  0  0  0  0
  5  6  2  0  0  0  0
  6  1  1  0  0  0  0
  3  4  1  0  0  0  0
 11  7  1  0  0  0  0
  6  8  1  0  0  0  0
  4  9  2  0  0  0  0
  2 10  1  0  0  0  0
 10 11  1  0  0  0  0
 11 12  2  0  0  0  0
  1 13  1  0  0  0  0
  7 14  1  0  0  0  0
  8 15  1  0  0  0  0
  3 16  1  0  0  0  0
M  END
