AAT Bioquest®, Inc. 2026
Actelion Java MolfileCreator 1.0

  8 12  0  0  0  0  0  0  0  0999 V2000
    0.0000   -0.0000   -0.0000 Fe  0  0  0  0  0  0  0  0  0  0  0  0
   -0.5364   -0.5969   -0.0000 S   0  0  0  0  0  0  0  0  0  0  0  0
   -1.6351   -0.5883   -0.0000 Fe  0  0  0  0  0  0  0  0  0  0  0  0
   -1.0987    0.0074   -0.0000 S   0  0  0  0  0  0  0  0  0  0  0  0
   -1.1074    1.1074   -0.0000 Fe  0  0  0  0  0  0  0  0  0  0  0  0
   -0.0087    1.0987   -0.0000 S   0  0  0  0  0  0  0  0  0  0  0  0
   -0.5450    0.5027   -0.0000 Fe  0  0  0  0  0  0  0  0  0  0  0  0
   -1.6437    0.5104   -0.0000 S   0  0  0  0  0  0  0  0  0  0  0  0
  1  2  1  0  0  0  0
  2  3  1  0  0  0  0
  3  4  1  0  0  0  0
  1  4  1  0  0  0  0
  4  5  1  0  0  0  0
  5  6  1  0  0  0  0
  1  6  1  0  0  0  0
  6  7  1  0  0  0  0
  2  7  1  0  0  0  0
  7  8  1  0  0  0  0
  3  8  1  0  0  0  0
  5  8  1  0  0  0  0
M  RAD  4   2   2   4   2   6   2   8   2
M  END
